Version 4
SHEET 1 2536 1076
WIRE 512 -400 512 -416
WIRE 512 -400 480 -400
WIRE 1408 -400 1408 -416
WIRE 1584 -400 1408 -400
WIRE 512 -336 512 -400
WIRE 1408 -304 1408 -400
WIRE 480 -288 480 -400
WIRE 512 -288 480 -288
WIRE 656 -288 560 -288
WIRE 1360 -256 1280 -256
WIRE 1584 -256 1584 -400
WIRE 1584 -256 1408 -256
WIRE 512 -160 512 -240
WIRE 1408 -160 1408 -208
WIRE 480 -112 480 -288
WIRE 512 -112 480 -112
WIRE 656 -112 656 -288
WIRE 656 -112 560 -112
WIRE 1280 -112 1280 -256
WIRE 1280 -112 656 -112
WIRE 1360 -112 1280 -112
WIRE 1584 -112 1584 -256
WIRE 1584 -112 1408 -112
WIRE 512 -32 512 -64
WIRE 656 -32 656 -112
WIRE 656 -32 512 -32
WIRE 512 0 512 -32
WIRE 1408 16 1408 -64
WIRE 1408 16 1232 16
WIRE 1552 16 1408 16
WIRE 1184 64 1120 64
WIRE 1408 64 1232 64
WIRE 1552 64 1408 64
WIRE 1664 64 1600 64
WIRE 1408 96 1408 64
WIRE 512 144 512 80
WIRE 1552 224 1552 112
WIRE 1712 224 1552 224
WIRE 1232 288 1232 112
WIRE 1360 288 1232 288
WIRE 1232 336 1232 288
WIRE 1552 336 1552 224
WIRE 1232 384 1168 384
WIRE 1360 384 1360 288
WIRE 1360 384 1280 384
WIRE 1504 384 1360 384
WIRE 1616 384 1552 384
WIRE 928 512 928 400
WIRE 1168 528 1168 384
WIRE 1232 528 1232 432
WIRE 1232 528 1168 528
WIRE 1552 528 1552 432
WIRE 1616 528 1616 384
WIRE 1616 528 1552 528
WIRE 1232 608 1232 528
WIRE 1392 608 1232 608
WIRE 1552 608 1552 528
WIRE 1552 608 1392 608
WIRE 112 640 112 592
WIRE 544 640 544 592
WIRE 544 640 112 640
WIRE 928 640 928 592
WIRE 928 640 544 640
WIRE 928 672 928 640
WIRE 1392 816 1392 608
FLAG 1120 64 Vin-
FLAG 1664 64 Vin+
FLAG 544 512 Vin+
FLAG 112 512 Vin-
FLAG 928 672 0
FLAG 928 400 Vdd
FLAG 1392 816 0
FLAG 1712 224 Vout
FLAG 512 -416 Vdd
FLAG 512 144 0
FLAG 1408 -416 Vdd
FLAG 1408 96 Vdd
DATAFLAG 1248 16 ""
DATAFLAG 896 -112 ""
DATAFLAG 1616 224 ""
SYMBOL voltage 544 496 R0
WINDOW 123 24 124 Left 2
WINDOW 39 0 0 Left 0
SYMATTR Value2 AC 0.01 0
SYMATTR InstName V1
SYMATTR Value SINE(0.5 0.0 1meg)
SYMBOL voltage 112 496 R0
WINDOW 123 24 124 Left 2
WINDOW 39 0 0 Left 0
SYMATTR Value2 AC 0.01 180
SYMATTR InstName V2
SYMATTR Value SINE(0.5 0 1meg 0 0 180)
SYMBOL voltage 928 496 R0
WINDOW 123 0 0 Left 0
WINDOW 39 0 0 Left 0
SYMATTR InstName V3
SYMATTR Value 1
SYMBOL pmos4 1600 112 R180
WINDOW 123 -191 103 Left 2
SYMATTR Value2 l=45n w=1.2u
SYMATTR InstName M1
SYMATTR Value pmos45bulk
SYMBOL pmos4 1184 112 M180
WINDOW 123 -243 87 Left 2
SYMATTR Value2 l=45n w=1.2u
SYMATTR InstName M2
SYMATTR Value pmos45bulk
SYMBOL nmos4 1504 336 R0
WINDOW 123 127 101 Left 2
SYMATTR Value2 l=45n w=120n
SYMATTR InstName M3
SYMATTR Value nmos45bulk
SYMBOL nmos4 1280 336 M0
WINDOW 123 84 0 Left 2
SYMATTR Value2 l=45n w=120n
SYMATTR InstName M4
SYMATTR Value nmos45bulk
SYMBOL pmos4 560 -64 R180
WINDOW 123 -193 111 Left 2
SYMATTR Value2 l=45n w=500n
SYMATTR InstName M5
SYMATTR Value pmos45bulk
SYMBOL current 512 0 R0
WINDOW 123 0 0 Left 0
WINDOW 39 24 28 Left 2
SYMATTR InstName I1
SYMATTR Value 50µ
SYMBOL pmos4 1360 -64 M180
WINDOW 123 83 117 Left 2
SYMATTR Value2 l=45n w=500n
SYMATTR InstName M6
SYMATTR Value pmos45bulk
SYMBOL pmos4 1360 -208 M180
WINDOW 123 83 117 Left 2
SYMATTR Value2 l=45n w=500n
SYMATTR InstName M7
SYMATTR Value pmos45bulk
SYMBOL pmos4 560 -240 R180
WINDOW 123 -193 111 Left 2
SYMATTR Value2 l=45n w=500n
SYMATTR InstName M8
SYMATTR Value pmos45bulk
TEXT 1672 -136 Left 2 !.lib ../libs/45nm_bulk.pm
TEXT 1894 208 Left 2 !.ac oct 100 10 100G
TEXT 1892 228 Left 2 !;tran 5u
