Version 4
SHEET 1 3260 1076
WIRE 2000 -272 2000 -368
WIRE 2048 -272 2000 -272
WIRE 1408 -256 1408 -368
WIRE 1584 -256 1408 -256
WIRE 512 -224 512 -368
WIRE 512 -224 480 -224
WIRE 2000 -176 2000 -272
WIRE 512 -160 512 -224
WIRE 1408 -160 1408 -256
WIRE 1952 -128 1840 -128
WIRE 2048 -128 2048 -272
WIRE 2048 -128 2000 -128
WIRE 2464 -128 2464 -368
WIRE 480 -112 480 -224
WIRE 512 -112 480 -112
WIRE 672 -112 560 -112
WIRE 1216 -112 672 -112
WIRE 1360 -112 1216 -112
WIRE 1584 -112 1584 -256
WIRE 1584 -112 1408 -112
WIRE 2416 -80 2352 -80
WIRE 2640 -80 2464 -80
WIRE 2640 -64 2640 -80
WIRE 512 -32 512 -64
WIRE 672 -32 672 -112
WIRE 672 -32 512 -32
WIRE 1216 -32 1216 -112
WIRE 1840 -32 1840 -128
WIRE 1840 -32 1216 -32
WIRE 512 0 512 -32
WIRE 1408 16 1408 -64
WIRE 1408 16 1232 16
WIRE 1552 16 1408 16
WIRE 1184 64 1120 64
WIRE 1408 64 1232 64
WIRE 1552 64 1408 64
WIRE 1664 64 1600 64
WIRE 1408 96 1408 64
WIRE 2000 112 2000 -80
WIRE 2352 112 2352 -80
WIRE 2352 112 2000 112
WIRE 2464 112 2464 -32
WIRE 2816 112 2464 112
WIRE 2944 112 2816 112
WIRE 1888 128 1856 128
WIRE 2000 128 2000 112
WIRE 2000 128 1952 128
WIRE 512 144 512 80
WIRE 2000 176 2000 128
WIRE 1552 224 1552 112
WIRE 1712 224 1552 224
WIRE 1856 224 1856 128
WIRE 1952 224 1856 224
WIRE 2048 224 2000 224
WIRE 2464 224 2464 112
WIRE 2352 272 2352 112
WIRE 2416 272 2352 272
WIRE 2608 272 2464 272
WIRE 2816 272 2816 112
WIRE 1232 288 1232 112
WIRE 1360 288 1232 288
WIRE 1232 336 1232 288
WIRE 1552 336 1552 224
WIRE 2000 336 2000 272
WIRE 2048 336 2048 224
WIRE 2048 336 2000 336
WIRE 1232 384 1168 384
WIRE 1360 384 1360 288
WIRE 1360 384 1280 384
WIRE 1504 384 1360 384
WIRE 1616 384 1552 384
WIRE 2816 400 2816 352
WIRE 928 512 928 400
WIRE 1168 528 1168 384
WIRE 1232 528 1232 432
WIRE 1232 528 1168 528
WIRE 1552 528 1552 432
WIRE 1616 528 1616 384
WIRE 1616 528 1552 528
WIRE 2000 528 2000 336
WIRE 2464 544 2464 320
WIRE 1232 608 1232 528
WIRE 1392 608 1232 608
WIRE 1552 608 1552 528
WIRE 1552 608 1392 608
WIRE 112 640 112 592
WIRE 544 640 544 592
WIRE 544 640 112 640
WIRE 928 640 928 592
WIRE 928 640 544 640
WIRE 928 672 928 640
WIRE 1392 704 1392 608
FLAG 1120 64 Vin-
FLAG 1664 64 Vin+
FLAG 544 512 Vin+
FLAG 112 512 Vin-
FLAG 928 672 0
FLAG 928 400 Vdd
FLAG 1392 704 0
FLAG 1712 224 Vout
FLAG 512 -368 Vdd
FLAG 512 144 0
FLAG 1408 -368 Vdd
FLAG 1408 96 Vdd
FLAG 2000 -368 Vdd
FLAG 2000 528 0
FLAG 2944 112 Vopamp
FLAG 2816 400 0
FLAG 2464 544 0
FLAG 2608 272 Vdd
FLAG 2640 -64 0
FLAG 2464 -368 Vdd
DATAFLAG 1248 16 ""
DATAFLAG 896 -112 ""
DATAFLAG 1616 224 ""
DATAFLAG 1376 384 ""
SYMBOL voltage 544 496 R0
WINDOW 123 24 124 Left 2
WINDOW 39 0 0 Left 0
SYMATTR Value2 AC 10u 0
SYMATTR InstName V1
SYMATTR Value SINE(0.2 40u 1meg)
SYMBOL voltage 112 496 R0
WINDOW 123 24 124 Left 2
WINDOW 39 0 0 Left 0
SYMATTR Value2 AC 10u 180
SYMATTR InstName V2
SYMATTR Value SINE(0.2 40u 1meg 0 0 180)
SYMBOL voltage 928 496 R0
WINDOW 123 0 0 Left 0
WINDOW 39 0 0 Left 0
SYMATTR InstName V3
SYMATTR Value 1
SYMBOL pmos4 1600 112 R180
WINDOW 123 -592 -31 Left 2
SYMATTR Value2 l=200n w=4900.0n as=1.37p ad=1.37p ps=10.36u pd=10.36u
SYMATTR InstName M1
SYMATTR Value pmos45bulk
SYMBOL pmos4 1184 112 M180
WINDOW 123 -545 -22 Left 2
SYMATTR Value2 l=200n w=4900.0n as=1.37p ad=1.37p ps=10.36u pd=10.36u
SYMATTR InstName M2
SYMATTR Value pmos45bulk
SYMBOL nmos4 1504 336 R0
WINDOW 123 127 101 Left 2
SYMATTR Value2 l=200n w=520.0n as=145.60f ad=145.60f ps=1.60u pd=1.60u
SYMATTR InstName M3
SYMATTR Value nmos45bulk
SYMBOL nmos4 1280 336 M0
WINDOW 123 84 0 Left 2
SYMATTR Value2 l=200n w=520.0n as=145.60f ad=145.60f ps=1.60u pd=1.60u
SYMATTR InstName M4
SYMATTR Value nmos45bulk
SYMBOL pmos4 560 -64 R180
WINDOW 123 99 121 Left 2
SYMATTR Value2 l=200n w=4700.0n as=1.32p ad=1.32p ps=9.96u pd=9.96u
SYMATTR InstName M5
SYMATTR Value pmos45bulk
SYMBOL current 512 0 R0
WINDOW 123 0 0 Left 0
WINDOW 39 24 28 Left 2
SYMATTR InstName I1
SYMATTR Value 50µ
SYMBOL pmos4 1360 -64 M180
WINDOW 123 -202 119 Left 2
SYMATTR Value2 l=200n w=4700.0n as=1.32p ad=1.32p ps=9.96u pd=9.96u
SYMATTR InstName M6
SYMATTR Value pmos45bulk
SYMBOL nmos4 1952 176 R0
WINDOW 123 113 30 Left 2
SYMATTR Value2 l=200n w=5000.0n as=1.40p ad=1.40p ps=10.56u pd=10.56u
SYMATTR InstName M9
SYMATTR Value nmos45bulk
SYMBOL pmos4 1952 -80 M180
WINDOW 123 122 123 Left 2
SYMATTR Value2 l=200n w=18u as=2.52p ad=2.52p ps=18.56u pd=18.56u
SYMATTR InstName M10
SYMATTR Value pmos45bulk
SYMBOL cap 1952 112 R90
WINDOW 0 0 32 VBottom 2
WINDOW 3 32 32 VTop 2
SYMATTR InstName C1
SYMATTR Value 1p
SYMBOL res 2800 256 R0
SYMATTR InstName R1
SYMATTR Value 100
SYMBOL nmos4 2416 -128 R0
WINDOW 123 113 30 Left 2
SYMATTR Value2 l=200n w=5000.0n as=1.40p ad=1.40p ps=10.56u pd=10.56u
SYMATTR InstName M7
SYMATTR Value nmos45bulk
SYMBOL pmos4 2416 320 M180
WINDOW 123 122 123 Left 2
SYMATTR Value2 l=200n w=37u as=2.52p ad=2.52p ps=18.56u pd=18.56u
SYMATTR InstName M8
SYMATTR Value pmos45bulk
TEXT 1760 728 Left 2 !.lib ../libs/45nm_bulk.pm
TEXT 1760 760 Left 2 !;ac oct 100 1k 1G
TEXT 1760 784 Left 2 !.tran 5u
