Version 4
SHEET 1 2240 724
WIRE 112 -64 -256 -64
WIRE -256 16 -256 -64
WIRE 112 80 112 -64
WIRE 112 128 -160 128
WIRE 464 128 160 128
WIRE -256 160 -256 96
WIRE 464 256 464 128
WIRE -160 272 -160 128
WIRE 112 272 112 176
WIRE 464 368 464 336
WIRE -160 400 -160 352
WIRE 112 480 112 272
WIRE 64 528 -256 528
WIRE 144 528 112 528
WIRE -256 576 -256 528
WIRE 112 640 112 576
WIRE 144 640 144 528
WIRE 144 640 112 640
WIRE -256 704 -256 656
WIRE 112 704 112 640
FLAG -256 160 0
FLAG 464 368 0
FLAG 112 272 Vout
FLAG -160 400 0
FLAG 112 704 0
FLAG -256 704 0
DATAFLAG 112 320 ""
SYMBOL pmos4 160 176 R180
WINDOW 123 -592 -31 Left 2
SYMATTR Value2 l=200n w=4900.0n as=1.37p ad=1.37p ps=10.36u pd=10.36u
SYMATTR InstName M1
SYMATTR Value pmos45bulk
SYMBOL voltage -256 0 R0
SYMATTR InstName V1
SYMATTR Value 830.28m
SYMBOL voltage 464 240 R0
SYMATTR InstName V2
SYMATTR Value 0.2
SYMBOL voltage -160 256 R0
SYMATTR InstName V3
SYMATTR Value 1
SYMBOL nmos4 64 480 R0
WINDOW 123 127 101 Left 2
SYMATTR Value2 l=200n w=520.0n as=145.60f ad=145.60f ps=1.60u pd=1.60u
SYMATTR InstName M2
SYMATTR Value nmos45bulk
SYMBOL voltage -256 560 R0
WINDOW 123 0 0 Left 0
WINDOW 39 0 0 Left 0
SYMATTR InstName V5
SYMATTR Value 617.5m
TEXT -290 472 Left 2 !.tf V(Vout) V2
TEXT 768 -96 Left 2 !.lib ../libs/45nm_bulk.pm
